Circuit: * C:\Users\Tejaswanth\Downloads\qe2.asc

Direct Newton iteration for .op point succeeded.

Date: Fri May 21 21:12:11 2021
Total elapsed time: 0.090 seconds.

tnom = 27
temp = 27
method = modified trap
totiter = 2092
traniter = 2082
tranpoints = 1042
accept = 1042
rejected = 0
matrix size = 11
fillins = 2
solver = Normal
Matrix Compiler1: 588 bytes object code size  0.1/0.1/[0.1]
Matrix Compiler2: 1.10 KB object code size  0.1/0.1/[0.1]

